<?xml version="1.0" encoding="UTF-8"?>
<routes xmlns:xsi="http://www.w3.org/2001/XMLSchema-instance" xsi:noNamespaceSchemaLocation="http://sumo.dlr.de/xsd/routes_file.xsd">
    <trip id="275817_468_0" depart="27880.00" from="230306384" to="-120785042" />
        <trip id="300265_483_0" depart="28712.00" from="125954568" to="216585349" />
        <trip id="390944_564_0" depart="33756.00" from="24721127" to="36901727" />
        <trip id="486047_656_0" depart="39074.00" from="125954568" to="31730553" />
        <trip id="482899_652_0" depart="39502.00" from="24721127" to="216585349" />
        <trip id="530582_696_0" depart="41515.00" from="24721127" to="36901727" />
        <trip id="532616_698_0" depart="41873.00" from="216585360" to="260749334" />
        <trip id="570192_722_0" depart="43483.00" from="24721127" to="260749334" />
        <trip id="576427_725_0" depart="43553.00" from="24721127" to="260749334" />
        <trip id="601520_745_0" depart="44857.00" from="90640766" to="216585355" />
        <trip id="619757_756_0" depart="45656.00" from="24721127" to="260749334" />
        <trip id="688960_802_0" depart="48496.00" from="-27195800" to="-145127858" />
        <trip id="907025_942_0" depart="56376.00" from="-27195800" to="-145127858" />
        <trip id="919138_947_0" depart="56835.00" from="216585360" to="30779824" />
        <trip id="914445_945_0" depart="56935.00" from="24721127" to="31730553" />
        <trip id="954653_962_0" depart="57788.00" from="125954568" to="216585349" />
        <trip id="953656_961_0" depart="57980.00" from="24721127" to="36901727" />
        <trip id="1023778_986_0" depart="58810.00" from="216585360" to="48181057" />
        <trip id="1081113_1006_0" depart="59977.00" from="-27195800" to="24721127" />
        <trip id="1096511_1012_0" depart="60424.00" from="-120785042" to="-145127858" />
        <trip id="1109462_1018_0" depart="60674.00" from="-145127858" to="-145127858" />
        <trip id="1219298_1065_0" depart="63809.00" from="30425147" to="30779824" />
        <trip id="1231584_1070_0" depart="63873.00" from="230306384" to="-38047217" />
        <trip id="1272550_1085_0" depart="65521.00" from="125954568" to="31730553" />
        <trip id="1301087_1103_0" depart="66276.00" from="133859049" to="-145127858" />
        <trip id="1315163_1112_0" depart="66647.00" from="230306384" to="30424985" />
        <trip id="1368215_1148_0" depart="69271.00" from="-27195800" to="230306383" />
        <trip id="1461438_1237_0" depart="74246.00" from="230306384" to="30424966" />
        <trip id="1485344_1272_0" depart="76611.00" from="133859049" to="30758176" />
        <trip id="1501102_1303_0" depart="77928.00" from="133859049" to="36901727" />
    </routes>
