<?xml version="1.0" encoding="UTF-8"?>

<!-- generated on 2025-07-31 23:18:52.941922 by randomTrips.py v1_20_0+0002-343658e7c64
<configuration>
    <net-file value="cologne_100km2.net.xml"/>
    <output-trip-file value="cologne_5k.trips.xml"/>
    <end value="5000.0"/>
    <period value="1.0"/>
</configuration>
-->

<routes xmlns:xsi="http://www.w3.org/2001/XMLSchema-instance" xsi:noNamespaceSchemaLocation="http://sumo.dlr.de/xsd/routes_file.xsd">
    <trip id="0" depart="0.00" from="24659333#0" to="-141184499#3"/>
    <trip id="1" depart="1.00" from="-31730611#1" to="-29142587#5"/>
    <trip id="2" depart="2.00" from="28938944#0" to="26309129"/>
    <trip id="3" depart="3.00" from="43518921#1" to="-202648018#2"/>
    <trip id="4" depart="4.00" from="-78355934#3" to="-141193182#0"/>
    <trip id="5" depart="5.00" from="-28841070" to="144523827"/>
    <trip id="6" depart="6.00" from="-141192775#1" to="-28400504#5"/>
    <trip id="7" depart="7.00" from="25538648#0" to="162764144#1"/>
    <trip id="8" depart="8.00" from="-28888628#4" to="23354269#0"/>
    <trip id="9" depart="9.00" from="32461805" to="-114514480#1"/>
    <trip id="10" depart="10.00" from="31928229#0" to="27744109#1"/>
    <trip id="11" depart="11.00" from="-362148570#1" to="-25978569#0"/>
    <trip id="12" depart="12.00" from="80249230#0" to="-39208863#2"/>
    <trip id="13" depart="13.00" from="-193320683" to="-205663030#1"/>
    <trip id="14" depart="14.00" from="35941444#0" to="23632454#0"/>
    <trip id="15" depart="15.00" from="32108943#12" to="29168226#0"/>
    <trip id="16" depart="16.00" from="146842514" to="8101180#1"/>
    <trip id="17" depart="17.00" from="-44529418#1" to="179758495"/>
    <trip id="18" depart="18.00" from="34642064" to="24900807#0"/>
    <trip id="19" depart="19.00" from="36728394#0" to="208414279#0"/>
    <trip id="20" depart="20.00" from="26968956#2" to="-141973138#1"/>
    <trip id="21" depart="21.00" from="-28938597#3" to="-34636935#1"/>
    <trip id="22" depart="22.00" from="-162128655" to="-30425371#4"/>
    <trip id="23" depart="23.00" from="-205658262#1" to="-32613851#0"/>
    <trip id="24" depart="24.00" from="24658267#1" to="-48057950"/>
    <trip id="25" depart="25.00" from="-43520298#1" to="-28895133#3"/>
    <trip id="26" depart="26.00" from="-30938122" to="70864690"/>
    <trip id="27" depart="27.00" from="25342116#1" to="24599081#0"/>
    <trip id="28" depart="28.00" from="-26230872#1" to="29168209#3"/>
    <trip id="29" depart="29.00" from="-25786507#2" to="-58876695"/>
    <trip id="30" depart="30.00" from="90360385#0" to="25740654"/>
    <trip id="31" depart="31.00" from="151569667#0" to="26856427#3"/>
    <trip id="32" depart="32.00" from="35941425#2" to="31730660#0"/>
    <trip id="33" depart="33.00" from="-28938944#0" to="-141210362#3"/>
    <trip id="34" depart="34.00" from="-35151280#0" to="-31730740#5"/>
    <trip id="35" depart="35.00" from="-27738980#1" to="7640851#2"/>
    <trip id="36" depart="36.00" from="37880231" to="-35970238#0"/>
    <trip id="37" depart="37.00" from="25738198#0" to="-7639829#1"/>
    <trip id="38" depart="38.00" from="51383966#0" to="122116624#0"/>
    <trip id="39" depart="39.00" from="-30841213#1" to="-30758171#3"/>
    <trip id="40" depart="40.00" from="156260102#1" to="-31014991#0"/>
    <trip id="41" depart="41.00" from="204122412#0" to="46246434#0"/>
    <trip id="42" depart="42.00" from="-56066028" to="-29118275"/>
    <trip id="43" depart="43.00" from="99790289#1" to="148755960"/>
    <trip id="44" depart="44.00" from="-177761761#4" to="-142132552#0"/>
    <trip id="45" depart="45.00" from="-22769286#0" to="255060938#1"/>
    <trip id="46" depart="46.00" from="31014887" to="-81965124#3"/>
    <trip id="47" depart="47.00" from="-151245977#0" to="-59384443#0"/>
    <trip id="48" depart="48.00" from="98613785" to="151569675#1"/>
    <trip id="49" depart="49.00" from="8101162#0" to="36731138#1"/>
    <trip id="50" depart="50.00" from="-117864241#4" to="28967588#1"/>
    <trip id="51" depart="51.00" from="26230914#6" to="162128653#0"/>
    <trip id="52" depart="52.00" from="-30933302" to="25760782#0"/>
    <trip id="53" depart="53.00" from="-23354259#1" to="-98041787#2"/>
    <trip id="54" depart="54.00" from="-81973200#3" to="8093084#0"/>
    <trip id="55" depart="55.00" from="37863828" to="-31015607#2"/>
    <trip id="56" depart="56.00" from="141181390" to="-26308802#1"/>
    <trip id="57" depart="57.00" from="48057968" to="37880405"/>
    <trip id="58" depart="58.00" from="-34243657#2" to="25740645#1"/>
    <trip id="59" depart="59.00" from="22769286#5" to="-25761558"/>
    <trip id="60" depart="60.00" from="30667005#0" to="162281820"/>
    <trip id="61" depart="61.00" from="30839751#0" to="151608263"/>
    <trip id="62" depart="62.00" from="-100466670#0" to="-36731139#0"/>
    <trip id="63" depart="63.00" from="-140582315#0" to="61303676"/>
    <trip id="64" depart="64.00" from="37982571" to="35941426"/>
    <trip id="65" depart="65.00" from="-34642063#4" to="-150013429#2"/>
    <trip id="66" depart="66.00" from="37880947#0" to="79812245#0"/>
    <trip id="67" depart="67.00" from="-162764138" to="141210381"/>
    <trip id="68" depart="68.00" from="-151503340#0" to="30840189"/>
    <trip id="69" depart="69.00" from="30670511#1" to="-24659333#5"/>
    <trip id="70" depart="70.00" from="103568376" to="172664354"/>
    <trip id="71" depart="71.00" from="-30858128" to="37982571"/>
    <trip id="72" depart="72.00" from="-78378090" to="-28895891#0"/>
    <trip id="73" depart="73.00" from="150011513#4" to="292073262"/>
    <trip id="74" depart="74.00" from="-26968955#0" to="-35969921#1"/>
    <trip id="75" depart="75.00" from="97730033#1" to="25978572#1"/>
    <trip id="76" depart="76.00" from="-8093950#1" to="151245956"/>
    <trip id="77" depart="77.00" from="-23612321#5" to="-29168127"/>
    <trip id="78" depart="78.00" from="-35995534#0" to="23354259#0"/>
    <trip id="79" depart="79.00" from="-28939061" to="-29121825#1"/>
    <trip id="80" depart="80.00" from="-151505130#5" to="25738188"/>
    <trip id="81" depart="81.00" from="-28938871#3" to="48124700"/>
    <trip id="82" depart="82.00" from="362486823#0" to="-151569675#0"/>
    <trip id="83" depart="83.00" from="-29168226#1" to="26267402#0"/>
    <trip id="84" depart="84.00" from="-27933239#3" to="-24917351#1"/>
    <trip id="85" depart="85.00" from="61303671#0" to="205658274"/>
    <trip id="86" depart="86.00" from="103568323#0" to="318226733"/>
    <trip id="87" depart="87.00" from="32108949#0" to="-27061509#1"/>
    <trip id="88" depart="88.00" from="-204122403#5" to="-90360385#5"/>
    <trip id="89" depart="89.00" from="-79612456" to="133859050-AddedOnRampEdge"/>
    <trip id="90" depart="90.00" from="28895133#0" to="26279974#1"/>
    <trip id="91" depart="91.00" from="81973201#1" to="-20636865#4"/>
    <trip id="92" depart="92.00" from="-58876788#0" to="-39827692"/>
    <trip id="93" depart="93.00" from="36728394#0" to="-30758178#2"/>
    <trip id="94" depart="94.00" from="-26308802#1" to="10377347#0"/>
    <trip id="95" depart="95.00" from="-78355934#3" to="-328375805"/>
    <trip id="96" depart="96.00" from="-30666981#2" to="59384443#2"/>
    <trip id="97" depart="97.00" from="-8101168#1" to="36770353"/>
    <trip id="98" depart="98.00" from="151245977#6" to="-145245294#7"/>
    <trip id="99" depart="99.00" from="99899257#4" to="35941439#1"/>
    <trip id="100" depart="100.00" from="8094068#2" to="60338290"/>
    <trip id="101" depart="101.00" from="35941451#1" to="-26230911#0"/>
    <trip id="102" depart="102.00" from="117848268" to="-28938597#0"/>
    <trip id="103" depart="103.00" from="-56186612#5" to="-150015919#1"/>
    <trip id="104" depart="104.00" from="-44717502#4" to="82306539"/>
    <trip id="105" depart="105.00" from="-30858385" to="318226723"/>
    <trip id="106" depart="106.00" from="-81974524" to="-81970001#3"/>
    <trip id="107" depart="107.00" from="80249376" to="98613785"/>
    <trip id="108" depart="108.00" from="151505130#0" to="28938688"/>
    <trip id="109" depart="109.00" from="-25740047#0" to="-35151239#1"/>
    <trip id="110" depart="110.00" from="8094068#0" to="216585360"/>
    <trip id="111" depart="111.00" from="150013426" to="30670509#1"/>
    <trip id="112" depart="112.00" from="-148826695#0" to="224670396"/>
    <trip id="113" depart="113.00" from="141182356#0" to="36714419"/>
    <trip id="114" depart="114.00" from="-25740653#0" to="8093940#0"/>
    <trip id="115" depart="115.00" from="-162128658#0" to="-26953596#1"/>
    <trip id="116" depart="116.00" from="205658277#0" to="26308655#1"/>
    <trip id="117" depart="117.00" from="-29142589#0" to="-23694263#6"/>
    <trip id="118" depart="118.00" from="43518914#0" to="-30738629#0"/>
    <trip id="119" depart="119.00" from="205658275#0" to="24901863#1"/>
    <trip id="120" depart="120.00" from="-75120083#1" to="224620693#0"/>
    <trip id="121" depart="121.00" from="141317712#5" to="69249293#3"/>
    <trip id="122" depart="122.00" from="-27061507#3" to="28938224#0"/>
    <trip id="123" depart="123.00" from="-29215765#0" to="-7639968"/>
    <trip id="124" depart="124.00" from="26028003#0" to="-35941410#2"/>
    <trip id="125" depart="125.00" from="-35408609" to="30713889#0"/>
    <trip id="126" depart="126.00" from="-151569688" to="120788902#0"/>
    <trip id="127" depart="127.00" from="99899257#0" to="98636353#0"/>
    <trip id="128" depart="128.00" from="-151608261" to="-28938448#0"/>
    <trip id="129" depart="129.00" from="-30858385" to="67150802#0"/>
    <trip id="130" depart="130.00" from="38078743#5" to="39827677#4"/>
    <trip id="131" depart="131.00" from="-43520295#4" to="-260749334"/>
    <trip id="132" depart="132.00" from="35149876" to="286302532"/>
    <trip id="133" depart="133.00" from="23354259#0" to="89667059"/>
    <trip id="134" depart="134.00" from="25738191#1" to="-115885587#1"/>
    <trip id="135" depart="135.00" from="33361036" to="-35941409#2"/>
    <trip id="136" depart="136.00" from="25761336#8" to="72078635#1"/>
    <trip id="137" depart="137.00" from="-24659229#1" to="-23612824#4"/>
    <trip id="138" depart="138.00" from="-216600325#2" to="193320683"/>
    <trip id="139" depart="139.00" from="-31014887" to="23632454#8"/>
    <trip id="140" depart="140.00" from="286302530" to="-28840834"/>
    <trip id="141" depart="141.00" from="24641237#1" to="-31255852#1"/>
    <trip id="142" depart="142.00" from="122871405#0" to="48124700"/>
    <trip id="143" depart="143.00" from="35941436#1" to="-205658253#1"/>
    <trip id="144" depart="144.00" from="-79612456" to="-32612262"/>
    <trip id="145" depart="145.00" from="-104245713" to="31014885#2"/>
    <trip id="146" depart="146.00" from="24658799#1" to="-31014885#2"/>
    <trip id="147" depart="147.00" from="29122028#0" to="178605386"/>
    <trip id="148" depart="148.00" from="-80249229#8" to="-117848275#1"/>
    <trip id="149" depart="149.00" from="-153403699#1" to="43122463#3"/>
    <trip id="150" depart="150.00" from="44952612#1" to="162764147#0"/>
    <trip id="151" depart="151.00" from="35150707" to="220277148#0"/>
    <trip id="152" depart="152.00" from="-25626112#3" to="-24659265"/>
    <trip id="153" depart="153.00" from="-34647807#0" to="47805902#0"/>
    <trip id="154" depart="154.00" from="31730660#0" to="36731138#1"/>
    <trip id="155" depart="155.00" from="43684541#8" to="-28895475#3"/>
    <trip id="156" depart="156.00" from="-30666939#2" to="-22769286#0"/>
    <trip id="157" depart="157.00" from="30840439#0" to="43518916#0"/>
    <trip id="158" depart="158.00" from="-59384457#1" to="24902756#1"/>
    <trip id="159" depart="159.00" from="-25740045#2" to="61303678#1"/>
    <trip id="160" depart="160.00" from="36731129" to="8101227#1"/>
    <trip id="161" depart="161.00" from="32461809#1" to="42264819#2"/>
    <trip id="162" depart="162.00" from="-141182366" to="30199342#3"/>
    <trip id="163" depart="163.00" from="-35967538" to="6195649#1"/>
    <trip id="164" depart="164.00" from="318226707" to="36975981#0"/>
    <trip id="165" depart="165.00" from="32461809#1" to="-31730685#0"/>
    <trip id="166" depart="166.00" from="30960422#2" to="-23357113#1"/>
    <trip id="167" depart="167.00" from="37412366#0" to="36731129"/>
    <trip id="168" depart="168.00" from="-28889346#3" to="34647807#0"/>
    <trip id="169" depart="169.00" from="-90360385#4" to="-35941436#0"/>
    <trip id="170" depart="170.00" from="31730629#2" to="-29215803#9"/>
    <trip id="171" depart="171.00" from="-141181403#0" to="-27461363"/>
    <trip id="172" depart="172.00" from="-35941452" to="37102555"/>
    <trip id="173" depart="173.00" from="8093942#0" to="-33348340#1"/>
    <trip id="174" depart="174.00" from="24901881#0" to="-79612478#2"/>
    <trip id="175" depart="175.00" from="81965124#0" to="162128650"/>
    <trip id="176" depart="176.00" from="67150802#0" to="-23612824#4"/>
    <trip id="177" depart="177.00" from="8094071#4" to="-26308802#1"/>
    <trip id="178" depart="178.00" from="8093818#2" to="-31730649#0"/>
    <trip id="179" depart="179.00" from="-220277148#1" to="-91757249#4"/>
    <trip id="180" depart="180.00" from="28889348#0" to="-35969942"/>
    <trip id="181" depart="181.00" from="223378398#0" to="148817660#1"/>
    <trip id="182" depart="182.00" from="-47897393#2" to="208414276#0"/>
    <trip id="183" depart="183.00" from="-30683509#2" to="28841195#1"/>
    <trip id="184" depart="184.00" from="-10376030#4" to="60338287"/>
    <trip id="185" depart="185.00" from="148826694" to="28938944#0"/>
    <trip id="186" depart="186.00" from="29122095#0" to="26275715#0"/>
    <trip id="187" depart="187.00" from="-41453273" to="-151505130#3"/>
    <trip id="188" depart="188.00" from="25761340#0" to="-37831729#1"/>
    <trip id="189" depart="189.00" from="-35150726" to="35995532#1"/>
    <trip id="190" depart="190.00" from="28839833#1" to="-35941413#0"/>
    <trip id="191" depart="191.00" from="-34647811#4" to="-8093828#2"/>
    <trip id="192" depart="192.00" from="-58876695" to="-35150726"/>
    <trip id="193" depart="193.00" from="-23694263#4" to="-8101303#2"/>
    <trip id="194" depart="194.00" from="69249293#0" to="26309450#1"/>
    <trip id="195" depart="195.00" from="44529417#1" to="24659265"/>
    <trip id="196" depart="196.00" from="-34426895#2" to="169343150#1"/>
    <trip id="197" depart="197.00" from="-100466664#5" to="-34432916"/>
    <trip id="198" depart="198.00" from="-8093488" to="216740262#1"/>
    <trip id="199" depart="199.00" from="25738192#3" to="133146445#0"/>
    <trip id="200" depart="200.00" from="-8101162#0" to="-28938597#0"/>
    <trip id="201" depart="201.00" from="103568343" to="47897391"/>
    <trip id="202" depart="202.00" from="31730660#0" to="-26266563#0"/>
    <trip id="203" depart="203.00" from="-162764134" to="150013429#2"/>
    <trip id="204" depart="204.00" from="24622356#0" to="-39207741#0"/>
    <trip id="205" depart="205.00" from="335723219#2" to="30712183#0"/>
    <trip id="206" depart="206.00" from="26152290" to="-29168127"/>
    <trip id="207" depart="207.00" from="-26953595" to="-141182367#1"/>
    <trip id="208" depart="208.00" from="-30424985" to="141184484"/>
    <trip id="209" depart="209.00" from="35941462#0" to="-151608269#2"/>
    <trip id="210" depart="210.00" from="-67150811#1" to="25626112#0"/>
    <trip id="211" depart="211.00" from="-26606781#3" to="27738960#1"/>
    <trip id="212" depart="212.00" from="133859049-AddedOnRampEdge" to="-30712660"/>
    <trip id="213" depart="213.00" from="25738203" to="-108236138#0"/>
    <trip id="214" depart="214.00" from="293336492" to="31004022"/>
    <trip id="215" depart="215.00" from="-216585355" to="-81974523"/>
    <trip id="216" depart="216.00" from="-26230911#0" to="8093820#3"/>
    <trip id="217" depart="217.00" from="141213647#1" to="-145245294#6"/>
    <trip id="218" depart="218.00" from="-30666891" to="35995533"/>
    <trip id="219" depart="219.00" from="-82306740" to="335736380#1"/>
    <trip id="220" depart="220.00" from="25829574" to="90360377#1"/>
    <trip id="221" depart="221.00" from="205658277#2" to="80249227"/>
    <trip id="222" depart="222.00" from="43518917#0" to="24658267#0"/>
    <trip id="223" depart="223.00" from="28839668#2" to="144209840#0"/>
    <trip id="224" depart="224.00" from="34647811#2" to="169343150#0"/>
    <trip id="225" depart="225.00" from="43653950" to="30666875#2"/>
    <trip id="226" depart="226.00" from="103568363" to="-30962596#2"/>
    <trip id="227" depart="227.00" from="-30436651#2" to="25740052#0"/>
    <trip id="228" depart="228.00" from="30670509#1" to="151245981#1"/>
    <trip id="229" depart="229.00" from="23632454#3" to="-32461806#0"/>
    <trip id="230" depart="230.00" from="-162128644#0" to="-34430603#0"/>
    <trip id="231" depart="231.00" from="-31014885#0" to="-36728394#1"/>
    <trip id="232" depart="232.00" from="150011514#9" to="-25585153#0"/>
    <trip id="233" depart="233.00" from="-29091391#3" to="275916980#1"/>
    <trip id="234" depart="234.00" from="27061509#0" to="-151245977#6"/>
    <trip id="235" depart="235.00" from="-60337662" to="162764135"/>
    <trip id="236" depart="236.00" from="-70012519#1" to="-28889328#0"/>
    <trip id="237" depart="237.00" from="-7639678#1" to="48057939#2"/>
    <trip id="238" depart="238.00" from="204122403#3" to="27738841"/>
    <trip id="239" depart="239.00" from="35995532#0" to="30933301"/>
    <trip id="240" depart="240.00" from="-46245963#1" to="-111324937"/>
    <trip id="241" depart="241.00" from="-37386775" to="30716557#0"/>
    <trip id="242" depart="242.00" from="35969922#7" to="8093081#7"/>
    <trip id="243" depart="243.00" from="-74354161#1" to="30670224#1"/>
    <trip id="244" depart="244.00" from="151245959" to="23631874#4"/>
    <trip id="245" depart="245.00" from="-28888628#5" to="-29118284"/>
    <trip id="246" depart="246.00" from="-8093941#2" to="-141193180"/>
    <trip id="247" depart="247.00" from="-35970238#0" to="26465812#8"/>
    <trip id="248" depart="248.00" from="-59384428" to="-26230903#3"/>
    <trip id="249" depart="249.00" from="-98940069" to="-24659267#0"/>
    <trip id="250" depart="250.00" from="23612574#0" to="-141192780"/>
    <trip id="251" depart="251.00" from="-54444463#7" to="205620540#0"/>
    <trip id="252" depart="252.00" from="-141192777#2" to="25761336#0"/>
    <trip id="253" depart="253.00" from="-24659333#6" to="128132988"/>
    <trip id="254" depart="254.00" from="-144209840#1" to="-58779050#1"/>
    <trip id="255" depart="255.00" from="-27739002#2" to="-37411036#0"/>
    <trip id="256" depart="256.00" from="30666894" to="-58779050#1"/>
    <trip id="257" depart="257.00" from="293336494" to="35941427#0"/>
    <trip id="258" depart="258.00" from="-30667127" to="-171250492"/>
    <trip id="259" depart="259.00" from="-140582315#0" to="162281821"/>
    <trip id="260" depart="260.00" from="99899257#7" to="-43684541#1"/>
    <trip id="261" depart="261.00" from="25538649" to="31730812#3"/>
    <trip id="262" depart="262.00" from="25626112#1" to="30719661"/>
    <trip id="263" depart="263.00" from="7640804" to="-285259349#2"/>
    <trip id="264" depart="264.00" from="-141179147#3" to="-25761555#6"/>
    <trip id="265" depart="265.00" from="-23632454#6" to="26275276"/>
    <trip id="266" depart="266.00" from="162128655" to="-29091391#1"/>
    <trip id="267" depart="267.00" from="26606967" to="30960422#1"/>
    <trip id="268" depart="268.00" from="-26152283#2" to="23694274#0"/>
    <trip id="269" depart="269.00" from="29168226#0" to="-23612824#0"/>
    <trip id="270" depart="270.00" from="33970287#0" to="8094063#1"/>
    <trip id="271" depart="271.00" from="-217633187#1" to="-141192775#2"/>
    <trip id="272" depart="272.00" from="-35106452#1" to="26309450#1"/>
    <trip id="273" depart="273.00" from="80278003" to="-7640804"/>
    <trip id="274" depart="274.00" from="28320662#0" to="-162128645#2"/>
    <trip id="275" depart="275.00" from="26275718#1" to="254822143#0"/>
    <trip id="276" depart="276.00" from="-205658270#2" to="31014991#2"/>
    <trip id="277" depart="277.00" from="35941463#0" to="23612824#2"/>
    <trip id="278" depart="278.00" from="-23612406#0" to="81974523"/>
    <trip id="279" depart="279.00" from="30841213#1" to="-43520300#5"/>
    <trip id="280" depart="280.00" from="-80367855" to="-54444463#0"/>
    <trip id="281" depart="281.00" from="141192778#0" to="-42264819#2"/>
    <trip id="282" depart="282.00" from="35941461#0" to="35150638#0"/>
    <trip id="283" depart="283.00" from="-208414271#1" to="8093940#0"/>
    <trip id="284" depart="284.00" from="24658267#0" to="35941410#3"/>
    <trip id="285" depart="285.00" from="27062380#1" to="-98334308"/>
    <trip id="286" depart="286.00" from="28938597#0" to="8094068#0"/>
    <trip id="287" depart="287.00" from="-30962599#1" to="34430603#0"/>
    <trip id="288" depart="288.00" from="148817660#0" to="141210355"/>
    <trip id="289" depart="289.00" from="-8093941#1" to="29215766#2"/>
    <trip id="290" depart="290.00" from="-30960422#2" to="362486824#0"/>
    <trip id="291" depart="291.00" from="34654638#0" to="-202557105"/>
    <trip id="292" depart="292.00" from="38823394#1" to="-30712183#5"/>
    <trip id="293" depart="293.00" from="-91779187#1" to="24622466#0"/>
    <trip id="294" depart="294.00" from="-44717502#4" to="-141193179#1"/>
    <trip id="295" depart="295.00" from="35941470#0" to="-26606758#0"/>
    <trip id="296" depart="296.00" from="-27744105#1" to="33378438"/>
    <trip id="297" depart="297.00" from="-362148570#2" to="4044270#0"/>
    <trip id="298" depart="298.00" from="26856134" to="-32611964#2"/>
    <trip id="299" depart="299.00" from="-117848275#1" to="79817021#2"/>
    <trip id="300" depart="300.00" from="-162764138" to="28938969"/>
    <trip id="301" depart="301.00" from="122871405#0" to="30760402#1-AddedOffRampEdge"/>
    <trip id="302" depart="302.00" from="26275718#1" to="25761557#0"/>
    <trip id="303" depart="303.00" from="128445391#0" to="32613847"/>
    <trip id="304" depart="304.00" from="-198353551#0" to="-29122081"/>
    <trip id="305" depart="305.00" from="26298807" to="-35941439#1"/>
    <trip id="306" depart="306.00" from="20364372#0" to="141181402"/>
    <trip id="307" depart="307.00" from="142169746#0" to="-81974524"/>
    <trip id="308" depart="308.00" from="29168127" to="-37857689#1"/>
    <trip id="309" depart="309.00" from="26968950#3" to="-32063940#1"/>
    <trip id="310" depart="310.00" from="-30667055#0" to="-23694264#0"/>
    <trip id="311" depart="311.00" from="-26465812#5" to="-23694263#4"/>
    <trip id="312" depart="312.00" from="146450518#1" to="30841042"/>
    <trip id="313" depart="313.00" from="-26275715#2" to="-28938944#1"/>
    <trip id="314" depart="314.00" from="115885587#3" to="29122095#5"/>
    <trip id="315" depart="315.00" from="8101221" to="151503320#0"/>
    <trip id="316" depart="316.00" from="-32108943#12" to="-216740265#1"/>
    <trip id="317" depart="317.00" from="-26606758#2" to="-29215766#1"/>
    <trip id="318" depart="318.00" from="-26266495#1" to="-128445393"/>
    <trip id="319" depart="319.00" from="145245294#2" to="-32461804#1"/>
    <trip id="320" depart="320.00" from="8101175#0" to="193320684#2"/>
    <trip id="321" depart="321.00" from="26606323" to="-24658810"/>
    <trip id="322" depart="322.00" from="36901735" to="141311480"/>
    <trip id="323" depart="323.00" from="37763706#0" to="20635375"/>
    <trip id="324" depart="324.00" from="-99899257#1" to="100290485#0"/>
    <trip id="325" depart="325.00" from="-26275698#4" to="-145464625"/>
    <trip id="326" depart="326.00" from="69249293#9" to="141192778#2"/>
    <trip id="327" depart="327.00" from="344082878" to="-80248200#1"/>
    <trip id="328" depart="328.00" from="-151608265#0" to="25625958"/>
    <trip id="329" depart="329.00" from="-146450518#0" to="-25760806#0"/>
    <trip id="330" depart="330.00" from="162128645#1" to="-35941430#1"/>
    <trip id="331" depart="331.00" from="91757249#1" to="-23632454#4"/>
    <trip id="332" depart="332.00" from="30667105#0" to="23694263#7"/>
    <trip id="333" depart="333.00" from="31004022" to="-29168209#2"/>
    <trip id="334" depart="334.00" from="141317712#3" to="10714447"/>
    <trip id="335" depart="335.00" from="-8101165#5" to="36731136"/>
    <trip id="336" depart="336.00" from="90360385#3" to="-35941436#2"/>
    <trip id="337" depart="337.00" from="23612494#1" to="24599082"/>
    <trip id="338" depart="338.00" from="29121743" to="79816992#1"/>
    <trip id="339" depart="339.00" from="-272587068" to="-28895734#0"/>
    <trip id="340" depart="340.00" from="25742613#0" to="-25978576"/>
    <trip id="341" depart="341.00" from="-26230903#0" to="-160379447#1"/>
    <trip id="342" depart="342.00" from="-10377109#1" to="10714447"/>
    <trip id="343" depart="343.00" from="205658271" to="-34647808#0"/>
    <trip id="344" depart="344.00" from="-29117658#1" to="28840760#0"/>
    <trip id="345" depart="345.00" from="26968954#0" to="117416079"/>
    <trip id="346" depart="346.00" from="26266867#6" to="59384450#1"/>
    <trip id="347" depart="347.00" from="30962589#0" to="25342115#2"/>
    <trip id="348" depart="348.00" from="25760782#0" to="67150808"/>
    <trip id="349" depart="349.00" from="-79817021#2" to="162764143#1"/>
    <trip id="350" depart="350.00" from="25342115#3" to="51751926#1"/>
    <trip id="351" depart="351.00" from="34433067#1" to="-151608258"/>
    <trip id="352" depart="352.00" from="-25978572#1" to="-35941450#4"/>
    <trip id="353" depart="353.00" from="29215766#0" to="205658268"/>
    <trip id="354" depart="354.00" from="-32613851#0" to="-24641237#2"/>
    <trip id="355" depart="355.00" from="26275698#1" to="27933239#4"/>
    <trip id="356" depart="356.00" from="70864690" to="141973134"/>
    <trip id="357" depart="357.00" from="133262436-AddedOnRampEdge" to="-162764143#0"/>
    <trip id="358" depart="358.00" from="-141316894#6" to="-90479802#1"/>
    <trip id="359" depart="359.00" from="-35941427#3" to="-30839696"/>
    <trip id="360" depart="360.00" from="-179758495" to="8093942#3"/>
    <trip id="361" depart="361.00" from="35151260" to="20636865#3"/>
    <trip id="362" depart="362.00" from="76840560#0" to="99899257#5"/>
    <trip id="363" depart="363.00" from="26152283#1" to="-31730812#2"/>
    <trip id="364" depart="364.00" from="-141316900" to="30758172#3"/>
    <trip id="365" depart="365.00" from="-99899257#6" to="260749334"/>
    <trip id="366" depart="366.00" from="5182184#0" to="-26606427#2"/>
    <trip id="367" depart="367.00" from="204124186" to="25738203"/>
    <trip id="368" depart="368.00" from="128445396#0" to="-205620534#1"/>
    <trip id="369" depart="369.00" from="-36731133#2" to="-37907290"/>
    <trip id="370" depart="370.00" from="25978572#0" to="36729135"/>
    <trip id="371" depart="371.00" from="-35941463#6" to="27406116#0"/>
    <trip id="372" depart="372.00" from="-32613848#1" to="78355944#6"/>
    <trip id="373" depart="373.00" from="32613850" to="173101343#0"/>
    <trip id="374" depart="374.00" from="-81974523" to="-35970237#2"/>
    <trip id="375" depart="375.00" from="-35941432" to="8101170#2"/>
    <trip id="376" depart="376.00" from="-59384427" to="150013420#1"/>
    <trip id="377" depart="377.00" from="89045533" to="26230873#6"/>
    <trip id="378" depart="378.00" from="150013429#2" to="-8094071#3"/>
    <trip id="379" depart="379.00" from="-26279974#1" to="-47897393#2"/>
    <trip id="380" depart="380.00" from="30425147" to="25342115#3"/>
    <trip id="381" depart="381.00" from="30666861#0" to="-28840834"/>
    <trip id="382" depart="382.00" from="151245976#2" to="60686218#0"/>
    <trip id="383" depart="383.00" from="-8093950#1" to="27744109#1"/>
    <trip id="384" depart="384.00" from="-23612406#1" to="8101180#1"/>
    <trip id="385" depart="385.00" from="22769286#3" to="-30667061"/>
    <trip id="386" depart="386.00" from="-25760790" to="173101348#4"/>
    <trip id="387" depart="387.00" from="151246959#0" to="-205658256#1"/>
    <trip id="388" depart="388.00" from="90479806#0" to="54601702#1"/>
    <trip id="389" depart="389.00" from="-90479802#0" to="-23631890"/>
    <trip id="390" depart="390.00" from="34919017#0" to="141323173#2"/>
    <trip id="391" depart="391.00" from="286302525" to="146450518#2"/>
    <trip id="392" depart="392.00" from="-31015607#4" to="35941435#9"/>
    <trip id="393" depart="393.00" from="8177289" to="-30712183#5"/>
    <trip id="394" depart="394.00" from="151245981#2" to="-59384457#2"/>
    <trip id="395" depart="395.00" from="55076811" to="145245300#3"/>
    <trip id="396" depart="396.00" from="37986971#0" to="36975981#0"/>
    <trip id="397" depart="397.00" from="-31730674#1" to="32461805"/>
    <trip id="398" depart="398.00" from="-69249293#2" to="67150811#0"/>
    <trip id="399" depart="399.00" from="141192780" to="34945956#0"/>
    <trip id="400" depart="400.00" from="-32108943#11" to="-35408615#2"/>
    <trip id="401" depart="401.00" from="205620534#2" to="99899257#2"/>
    <trip id="402" depart="402.00" from="125664765" to="-25760791"/>
    <trip id="403" depart="403.00" from="148826695#0" to="-43518921#1"/>
    <trip id="404" depart="404.00" from="151245981#6" to="162764140#0"/>
    <trip id="405" depart="405.00" from="-81975139" to="-36729134#0"/>
    <trip id="406" depart="406.00" from="-26308539#0" to="27744103#0"/>
    <trip id="407" depart="407.00" from="170147426#0" to="-30436537#3"/>
    <trip id="408" depart="408.00" from="30758176" to="-141323172#0"/>
    <trip id="409" depart="409.00" from="29146029" to="28839833#1"/>
    <trip id="410" depart="410.00" from="325731358-AddedOffRampEdge" to="-61303671#0"/>
    <trip id="411" depart="411.00" from="25761337#0" to="34945956#1"/>
    <trip id="412" depart="412.00" from="81960028#1" to="141317717#2"/>
    <trip id="413" depart="413.00" from="-141213646#1" to="142132548"/>
    <trip id="414" depart="414.00" from="205658257#0" to="37863824#1"/>
    <trip id="415" depart="415.00" from="37795703#0" to="100290485#0"/>