<?xml version='1.0' encoding='utf-8'?>
<trips><trip origin="38243849" destination="-31730812#2" /><trip origin="-25585153#1" destination="30758173#1" /><trip origin="31730798#0" destination="133848731" /><trip origin="-30758174#1" destination="217633189#1" /><trip origin="28840152#0" destination="173101348#0" /><trip origin="134706507#0" destination="217633189#1" /><trip origin="-30758174#1" destination="28840152#0" /><trip origin="30760404#0" destination="30425371#2" /><trip origin="216740265#0" destination="27195798#1" /><trip origin="134706507#0" destination="25342114#1" /><trip origin="28840152#0" destination="25585153#2" /><trip origin="-134706507#1" destination="24494409#0" /><trip origin="-30758173#0" destination="34436039" /><trip origin="-30758174#1" destination="27195798#1" /><trip origin="10375754#1" destination="-31730649#0" /><trip origin="10375754#1" destination="-216585352#0" /><trip origin="-134706507#1" destination="30425442" /><trip origin="31730660#3" destination="217633189#1" /><trip origin="-134706507#1" destination="24494409#0" /><trip origin="30425147" destination="30758173#1" /><trip origin="27195798#2" destination="30779824" /><trip origin="28840152#0" destination="-25585153#2" /><trip origin="134706507#0" destination="-31730812#2" /><trip origin="-8132936#4" destination="134706507#0" /><trip origin="31730660#3" destination="-25342112" /><trip origin="10375754#1" destination="-25342116#1" /><trip origin="216740265#0" destination="27195798#1" /><trip origin="125954568" destination="217633189#1" /><trip origin="-134706507#1" destination="133848731" /><trip origin="25342114#1" destination="25585153#2" /><trip origin="30425147" destination="-216716047#2" /><trip origin="25342114#1" destination="-216585352#0" /><trip origin="-134706507#1" destination="24494409#0" /><trip origin="-30758173#2" destination="31730621" /><trip origin="-25585153#1" destination="-216585352#0" /><trip origin="30760404#0" destination="30758174#0" /><trip origin="-31730649#0" destination="-216585352#0" /><trip origin="216740265#0" destination="27195798#1" /><trip origin="-91757249#2" destination="90640766" /><trip origin="125954568" destination="-216585352#0" /><trip origin="204125847" destination="-31730798#5" /><trip origin="-134706507#1" destination="-24494409#1" /><trip origin="29142589#3" destination="-173101348#3" /><trip origin="-30758174#1" destination="30760404#0" /><trip origin="28840152#0" destination="217633189#1" /><trip origin="27611964#0" destination="27195798#1" /><trip origin="30424966" destination="30758173#1" /><trip origin="-30758174#1" destination="-216585352#0" /><trip origin="-30758174#1" destination="-25585153#2" /><trip origin="125954568" destination="-216585352#0" /><trip origin="216740265#0" destination="30425371#2" /><trip origin="230306384" destination="-120785042" /><trip origin="28840152#0" destination="-216716047#2" /><trip origin="28840152#0" destination="173101348#0" /><trip origin="31730660#3" destination="30758173#1" /><trip origin="25342114#1" destination="-216585352#0" /><trip origin="25342114#1" destination="260749334" /><trip origin="30425147" destination="25585153#2" /><trip origin="28840152#0" destination="-216585352#0" /><trip origin="134706507#0" destination="325731358" /><trip origin="125954568" destination="216585349" /><trip origin="18228974#1" destination="-216716047#2" /><trip origin="173101348#4" destination="25342114#1" /><trip origin="125954568" destination="-216716047#2" /><trip origin="-38047217" destination="217633188#0" /><trip origin="25342116#1" destination="36901727" /><trip origin="-30758174#1" destination="30758173#1" /><trip origin="80249226#0" destination="216585352#0" /><trip origin="-30758174#1" destination="-216716047#2" /><trip origin="28840152#0" destination="-216585352#0" /><trip origin="18228974#1" destination="25342114#1" /><trip origin="216585360" destination="25342114#1" /><trip origin="216740265#0" destination="-216716047#2" /><trip origin="25342116#1" destination="-216585352#0" /><trip origin="31730899#0" destination="217633189#1" /><trip origin="28840152#0" destination="-25585153#2" /><trip origin="44717502#0" destination="-120785042" /><trip origin="37412366#0" destination="217633189#1" /><trip origin="134706507#0" destination="-255060938#2" /><trip origin="28840152#0" destination="217633189#1" /><trip origin="28840152#0" destination="-216585352#0" /><trip origin="125954568" destination="-216585352#0" /><trip origin="134706507#0" destination="-31730798#5" /><trip origin="4044270#0" destination="24494409#0" /><trip origin="8101167#0" destination="38047218" /><trip origin="28840152#0" destination="25342114#1" /><trip origin="30758173#1" destination="31730798#2" /><trip origin="30738629#1" destination="30425371#2" /><trip origin="-25585153#1" destination="-216585352#0" /><trip origin="125954568" destination="-25585153#1" /><trip origin="216740265#0" destination="30758173#1" /><trip origin="80249226#0" destination="133848731" /><trip origin="31928172" destination="-30426321#1" /><trip origin="-134706507#1" destination="8177290#1" /><trip origin="28840152#0" destination="-216585352#0" /><trip origin="134706507#0" destination="-216716047#2" /><trip origin="10375754#1" destination="36901727" /><trip origin="-216600325#2" destination="241588588" /><trip origin="-25585153#1" destination="260749334" /><trip origin="-142169748" destination="-216585352#0" /><trip origin="173101348#0" destination="-216585352#0" /><trip origin="216740265#0" destination="217633189#1" /><trip origin="-25585153#1" destination="-173101345#0" /><trip origin="28840152#0" destination="-216585352#0" /><trip origin="-30426321#1" destination="216585349" /><trip origin="29142589#3" destination="-30758178#2" /><trip origin="-134706507#1" destination="-216585352#0" /><trip origin="134706507#0" destination="-216716047#2" /><trip origin="25342114#1" destination="216585349" /><trip origin="30760404#0" destination="30758173#1" /><trip origin="134706507#0" destination="-216585354" /><trip origin="30760404#0" destination="-216716047#2" /><trip origin="24721127" destination="36901727" /><trip origin="10375734#0" destination="-216585352#0" /><trip origin="28840152#0" destination="-216716047#2" /><trip origin="25342116#1" destination="24494409#0" /><trip origin="31730660#3" destination="30779824" /><trip origin="-142169748" destination="-216716047#2" /><trip origin="10375734#0" destination="-216585352#0" /><trip origin="216740265#0" destination="-31730649#0" /><trip origin="25342114#1" destination="30779824" /><trip origin="30760404#0" destination="-216716047#2" /><trip origin="31730660#3" destination="-216585352#0" /><trip origin="25342116#1" destination="-216716047#2" /><trip origin="80249226#0" destination="-10375797#1" /><trip origin="8101179#0" destination="31730591#0" /><trip origin="173101348#4" destination="217633189#1" /><trip origin="216585360" destination="217633189#1" /><trip origin="24721127" destination="173101348#0" /><trip origin="216740262#1" destination="30758174#0" /><trip origin="10375734#0" destination="30425371#2" /><trip origin="31730899#0" destination="-216585352#0" /><trip origin="125954568" destination="25342114#1" /><trip origin="30760404#0" destination="25342114#1" /><trip origin="134706507#0" destination="-216716047#2" /><trip origin="27611964#0" destination="216585349" /><trip origin="125954568" destination="-216716047#2" /><trip origin="31730660#3" destination="173101348#0" /><trip origin="216585360" destination="217633189#1" /><trip origin="-30758173#2" destination="30779824" /><trip origin="216585360" destination="-216585352#0" /><trip origin="30738629#1" destination="-216585352#0" /><trip origin="51037382#0" destination="-25866966#8" /><trip origin="-30426321#1" destination="217633189#1" /><trip origin="134706507#0" destination="24721127" /><trip origin="216585360" destination="-216716047#2" /><trip origin="10375734#0" destination="-25585153#2" /><trip origin="28840152#0" destination="-216716047#2" /><trip origin="216740265#0" destination="217633189#1" /><trip origin="30760404#0" destination="173101348#0" /><trip origin="28840152#0" destination="-216585352#0" /><trip origin="28840152#0" destination="30758173#1" /><trip origin="30425147" destination="217633189#1" /><trip origin="30760404#0" destination="25585153#2" /><trip origin="125954568" destination="31730553" /><trip origin="31730899#0" destination="217633189#1" /><trip origin="-25585153#1" destination="-216716047#2" /><trip origin="24721127" destination="216585349" /><trip origin="216740265#0" destination="-216716047#2" /><trip origin="8101167#0" destination="24494409#0" /><trip origin="8101180#1" destination="-145127858" /><trip origin="-25585153#1" destination="217633189#1" /><trip origin="125682429#1" destination="24721127" /><trip origin="10375734#0" destination="216585350" /><trip origin="-51037374#1" destination="33970289" /><trip origin="-27195800" destination="27195798#1" /><trip origin="30760404#0" destination="-216585352#0" /><trip origin="216585360" destination="25585153#2" /><trip origin="8101179#0" destination="10089982" /><trip origin="-120785042" destination="-216716047#2" /><trip origin="125954568" destination="-216716047#2" /><trip origin="216740265#0" destination="217633189#1" /><trip origin="10375754#1" destination="25342114#1" /><trip origin="30760404#0" destination="36901727" /><trip origin="10375734#0" destination="24494409#0" /><trip origin="24721127" destination="-25585153#1" /><trip origin="10375734#0" destination="30425371#2" /><trip origin="25342114#1" destination="-216716047#2" /><trip origin="51037382#0" destination="-216585355" /><trip origin="10375734#0" destination="-25585153#2" /><trip origin="25342114#1" destination="217633189#1" /><trip origin="30760404#0" destination="30425371#2" /><trip origin="24721127" destination="36901727" /><trip origin="10375734#0" destination="-216585352#0" /><trip origin="216585360" destination="260749334" /><trip origin="-38047218" destination="216585352#0" /><trip origin="25342114#1" destination="216585350" /><trip origin="-30758174#1" destination="217633189#1" /><trip origin="8101167#0" destination="-31730805#3" /><trip origin="-24494409#1" destination="133859049-AddedOnRampEdge" /><trip origin="30738629#1" destination="24494409#0" /><trip origin="-24494409#1" destination="-34436038" /><trip origin="25342116#1" destination="30758174#0" /><trip origin="10375734#0" destination="25342114#1" /><trip origin="4044270#0" destination="-145127858" /><trip origin="29142589#2" destination="-216716047#2" /><trip origin="10375734#0" destination="30424985" /><trip origin="29142589#2" destination="8177290#1" /><trip origin="10375734#0" destination="-216585352#0" /><trip origin="10375734#0" destination="-31730649#0" /><trip origin="27611964#0" destination="260749334" /><trip origin="10375734#0" destination="24494409#0" /><trip origin="31730899#0" destination="-216716047#2" /><trip origin="28840152#0" destination="-216585352#0" /><trip origin="230306384" destination="-173101343#1" /><trip origin="25342114#1" destination="30425371#2" /><trip origin="30426321#0" destination="31730812#0" /><trip origin="4862758" destination="31730798#2" /><trip origin="24721127" destination="260749334" /><trip origin="24494409#0" destination="230306384" /><trip origin="27195798#2" destination="24494409#0" /><trip origin="24721127" destination="260749334" /><trip origin="-4044270#2" destination="142169746#2" /><trip origin="-4044270#2" destination="-145127858" /><trip origin="30760404#0" destination="30758174#0" /><trip origin="-134706507#1" destination="30425147" /><trip origin="28840152#0" destination="30758173#1" /><trip origin="28840152#0" destination="217633189#1" /><trip origin="-25585153#1" destination="-216716047#2" /><trip origin="28840152#0" destination="25585153#2" /><trip origin="25342116#1" destination="-216585352#0" /><trip origin="30760404#0" destination="36901727" /><trip origin="24721127" destination="24494409#0" /><trip origin="24721127" destination="-216585352#0" /><trip origin="-27195800" destination="24494409#0" /><trip origin="30738629#1" destination="173101348#0" /><trip origin="-30758174#1" destination="30758173#1" /><trip origin="90640766" destination="216585355" /><trip origin="31730660#3" destination="-216585352#0" /><trip origin="-31730798#1" destination="-134706507#1" /><trip origin="216585360" destination="28840152#0" /><trip origin="30760404#0" destination="-25585153#2" /><trip origin="8101179#0" destination="204125847" /><trip origin="24721127" destination="260749334" /><trip origin="10375734#0" destination="217633189#1" /><trip origin="10375734#0" destination="30758173#1" /><trip origin="173101348#4" destination="-216716047#2" /><trip origin="27195798#2" destination="133262436-AddedOnRampEdge" /><trip origin="-28840152#2" destination="-216716047#2" /><trip origin="125954568" destination="-216585352#0" /><trip origin="10375734#0" destination="-25585153#1" /><trip origin="-134706507#1" destination="217633188#0" /><trip origin="-30758173#2" destination="31730553" /><trip origin="216740262#1" destination="-216716047#2" /><trip origin="-120785042" destination="134706507#0" /><trip origin="10375754#1" destination="-216585352#0" /><trip origin="24494409#0" destination="170147426#1" /><trip origin="27611964#0" destination="27195798#1" /><trip origin="216740265#0" destination="217633189#1" /><trip origin="30760404#0" destination="31730553" /><trip origin="-24494409#1" destination="-30425371#0" /><trip origin="10375734#0" destination="30425371#2" /><trip origin="25342114#1" destination="30758174#0" /><trip origin="216585360" destination="-216585352#0" /><trip origin="24494409#0" destination="-173101343#1" /><trip origin="-44717502#4" destination="-27195800" /><trip origin="173101348#4" destination="30425371#2" /><trip origin="24494409#0" destination="173101348#0" /><trip origin="134706507#0" destination="-216716047#2" /><trip origin="-27195800" destination="25342116#1" /><trip origin="-27195800" destination="-145127858" /><trip origin="25342114#1" destination="27195798#1" /><trip origin="28840152#0" destination="217633189#1" /><trip origin="-30758174#1" destination="-216716047#2" /><trip origin="-142169748" destination="-216585352#0" /><trip origin="-28840152#2" destination="133859049-AddedOnRampEdge" /><trip origin="125954568" destination="-31730649#0" /><trip origin="-134706507#1" destination="25342114#1" /><trip origin="217633189#1" destination="30758174#0" /><trip origin="10375734#0" destination="30425371#2" /><trip origin="25342114#1" destination="217633189#1" /><trip origin="125954568" destination="-216716047#2" /><trip origin="-25585153#1" destination="-216585352#0" /><trip origin="25342116#1" destination="260749334" /><trip origin="30760404#0" destination="-31730649#0" /><trip origin="24721127" destination="30758174#0" /><trip origin="24494409#0" destination="38047218" /><trip origin="-30758174#1" destination="217633189#1" /><trip origin="230306383" destination="-31730798#5" /><trip origin="-120785042" destination="28840152#0" /><trip origin="10375754#1" destination="-216585352#0" /><trip origin="28840152#0" destination="-216716047#2" /><trip origin="-142169748" destination="30758174#0" /><trip origin="125954568" destination="-216716047#2" /><trip origin="-18228974#3" destination="-216716047#2" /><trip origin="216585360" destination="30758174#0" /><trip origin="29142589#2" destination="-173101348#5" /><trip origin="30738629#1" destination="30779824" /><trip origin="31730660#3" destination="-216716047#2" /><trip origin="10375754#1" destination="173101348#0" /><trip origin="30760404#0" destination="-216585352#0" /><trip origin="10375734#0" destination="-216585352#0" /><trip origin="-30758174#1" destination="217633189#1" /><trip origin="31730553" destination="-216585352#0" /><trip origin="30760404#0" destination="30779824" /><trip origin="-30758173#2" destination="217633189#1" /><trip origin="27611964#0" destination="30425371#2" /><trip origin="10375734#0" destination="30758173#1" /><trip origin="24721127" destination="-216585352#0" /><trip origin="125954568" destination="10375734#3" /><trip origin="30760404#0" destination="30758173#1" /><trip origin="216740265#0" destination="-216716047#2" /><trip origin="-120785042" destination="24494409#0" /><trip origin="30760404#0" destination="25585153#2" /><trip origin="134706507#0" destination="25342113#1" /><trip origin="30760404#0" destination="-216716047#2" /><trip origin="27195798#2" destination="25342114#1" /><trip origin="31730660#3" destination="173101348#0" /><trip origin="24721127" destination="-25585153#2" /><trip origin="-37412366#1" destination="10089982" /><trip origin="-134706507#1" destination="31730674#4" /><trip origin="30760404#0" destination="30758174#0" /><trip origin="30760404#0" destination="173101348#0" /><trip origin="173101348#4" destination="10375734#3" /><trip origin="-30758173#2" destination="217633189#1" /><trip origin="27195798#2" destination="36901727" /><trip origin="10375754#1" destination="217633189#1" /><trip origin="230306383" destination="-31730649#1" /><trip origin="24494409#0" destination="24494409#0" /><trip origin="10375734#0" destination="-216716047#2" /><trip origin="217633189#1" destination="24494409#0" /><trip origin="28840152#0" destination="30779824" /><trip origin="10375734#0" destination="30424985" /><trip origin="24721127" destination="-216585352#0" /><trip origin="30738629#1" destination="24494409#0" /><trip origin="216585360" destination="173101348#0" /><trip origin="173101348#4" destination="30779824" /><trip origin="30760404#0" destination="30758173#1" /><trip origin="27195798#2" destination="-216585352#0" /><trip origin="134706507#0" destination="-216716047#2" /><trip origin="-134706507#1" destination="217633202#2" /><trip origin="-18228974#3" destination="217633189#1" /><trip origin="30760404#0" destination="-216585352#0" /><trip origin="91757249#1" destination="24494409#0" /><trip origin="10375734#0" destination="-25342116#1" /><trip origin="-27195800" destination="-145127858" /><trip origin="216585360" destination="-25585153#2" /><trip origin="10375734#0" destination="260749334" /><trip origin="28840152#0" destination="-216585352#0" /><trip origin="173101348#4" destination="30758173#1" /><trip origin="28840152#0" destination="30758173#1" /><trip origin="173101348#4" destination="217633189#1" /><trip origin="30758173#1" destination="217633202#2" /><trip origin="216585360" destination="30779824" /><trip origin="30760404#0" destination="-216585352#0" /><trip origin="134706507#0" destination="216585352#0" /><trip origin="25342116#1" destination="30425371#2" /><trip origin="24721127" destination="31730553" /><trip origin="30760404#0" destination="30425371#2" /><trip origin="31730660#3" destination="-216716047#2" /><trip origin="10375754#1" destination="-25585153#1" /><trip origin="-25585153#1" destination="30779824" /><trip origin="31730660#3" destination="30758173#1" /><trip origin="-27195800" destination="-216716047#2" /><trip origin="-30758174#1" destination="30779824" /><trip origin="30760404#0" destination="30424985" /><trip origin="27195798#2" destination="30758174#0" /><trip origin="125954568" destination="216585349" /><trip origin="30738629#1" destination="-216585352#0" /><trip origin="30760404#0" destination="31730553" /><trip origin="30760404#0" destination="30758174#0" /><trip origin="24721127" destination="36901727" /><trip origin="4044270#0" destination="216585352#0" /><trip origin="27195798#2" destination="216585349" /><trip origin="28840152#0" destination="-216716047#2" /><trip origin="30760404#0" destination="36901727" /><trip origin="216740265#0" destination="10375734#3" /><trip origin="-30426321#1" destination="217633189#1" /><trip origin="230306384" destination="-31730890#1" /><trip origin="-134706507#1" destination="-31730890#1" /><trip origin="10375734#0" destination="28840152#0" /><trip origin="30738629#1" destination="-216585352#0" /><trip origin="10375734#0" destination="173101348#0" /><trip origin="216740265#0" destination="30425371#2" /><trip origin="10375754#1" destination="-25342116#1" /><trip origin="10375734#0" destination="30758174#0" /><trip origin="216585360" destination="48181057" /><trip origin="10375734#0" destination="-25342116#1" /><trip origin="28840152#0" destination="217633189#1" /><trip origin="30760404#0" destination="-216716047#2" /><trip origin="28840152#0" destination="-216716047#2" /><trip origin="28840152#0" destination="-216585352#0" /><trip origin="30760404#0" destination="230306384" /><trip origin="134706507#0" destination="173101343#0" /><trip origin="10375734#0" destination="28840152#0" /><trip origin="-30758174#1" destination="-216716047#2" /><trip origin="-25585153#1" destination="217633189#1" /><trip origin="-30758173#2" destination="8177290#1" /><trip origin="30760404#0" destination="30425371#2" /><trip origin="18228974#1" destination="30424985" /><trip origin="25342114#1" destination="-25342116#1" /><trip origin="25342116#1" destination="217633189#1" /><trip origin="230306384" destination="216585352#0" /><trip origin="10375734#0" destination="30425371#2" /><trip origin="-25585153#1" destination="-216716047#2" /><trip origin="30760404#0" destination="30758173#1" /><trip origin="8132936#0" destination="-34436039" /><trip origin="30760402#1-AddedOffRampEdge" destination="31928102#0" /><trip origin="134706507#0" destination="34436038" /><trip origin="31730660#3" destination="217633189#1" /><trip origin="30760404#0" destination="-25585153#1" /><trip origin="80249226#0" destination="-24494409#1" /><trip origin="24721127" destination="-216585352#0" /><trip origin="27195798#2" destination="36901727" /><trip origin="-30426321#1" destination="217633189#1" /><trip origin="216740262#1" destination="30758174#0" /><trip origin="230306383" destination="31730751#1" /><trip origin="173101348#0" destination="30758174#0" /><trip origin="27195798#2" destination="30758174#0" /><trip origin="27195798#2" destination="31730553" /><trip origin="30738629#1" destination="36901727" /><trip origin="4044270#0" destination="10089982" /><trip origin="24721127" destination="30758174#0" /><trip origin="-27195800" destination="24721127" /><trip origin="28840152#0" destination="260749334" /><trip origin="24721127" destination="-25342116#1" /><trip origin="30760404#0" destination="30758174#0" /><trip origin="30760404#0" destination="24494409#0" /><trip origin="24721127" destination="-216585352#0" /><trip origin="216740262#1" destination="24494409#0" /><trip origin="38047218" destination="8177290#1" /><trip origin="10089982" destination="-216585352#0" /><trip origin="30760404#0" destination="31730553" /><trip origin="30424966" destination="-216585352#0" /><trip origin="-120785042" destination="-145127858" /><trip origin="4044270#0" destination="24494409#0" /><trip origin="30760404#0" destination="30424985" /><trip origin="30425147" destination="217633189#1" /><trip origin="30760404#0" destination="30424985" /><trip origin="173101348#4" destination="30779824" /><trip origin="30760404#0" destination="-216585352#0" /><trip origin="-27406116#1" destination="44502616#3" /><trip origin="-145127858" destination="-145127858" /><trip origin="8101181#2" destination="-134706507#1" /><trip origin="134706507#0" destination="30779824" /><trip origin="-43687633" destination="24494409#0" /><trip origin="216585360" destination="27195798#1" /><trip origin="230306383" destination="31928102#0" /><trip origin="-134706507#1" destination="216585352#0" /><trip origin="24494409#0" destination="-134706507#1" /><trip origin="31928172" destination="217633189#1" /><trip origin="-51037382#1" destination="-25585153#1" /><trip origin="30760404#0" destination="-25585153#1" /><trip origin="31730660#3" destination="217633189#1" /><trip origin="30758173#1" destination="173101343#0" /><trip origin="30760404#0" destination="25342114#1" /><trip origin="31730660#3" destination="30779824" /><trip origin="230306383" destination="24494409#0" /><trip origin="-25585153#1" destination="217633189#1" /><trip origin="-134706507#1" destination="24721127" /><trip origin="8101180#1" destination="216585352#0" /><trip origin="216585360" destination="217633189#1" /><trip origin="216585360" destination="25585153#2" /><trip origin="134706507#0" destination="217633202#2" /><trip origin="30760404#0" destination="-25342116#1" /><trip origin="10375754#1" destination="36901727" /><trip origin="10375734#0" destination="25585153#2" /><trip origin="216585360" destination="217633189#1" /><trip origin="10375734#0" destination="-25585153#1" /><trip origin="30760404#0" destination="133262436-AddedOnRampEdge" /><trip origin="30738629#1" destination="173101348#0" /><trip origin="30738629#1" destination="25342114#1" /><trip origin="173101348#4" destination="10375734#3" /><trip origin="-30758174#1" destination="217633189#1" /><trip origin="28840152#0" destination="30758173#1" /><trip origin="30760404#0" destination="-216716047#2" /><trip origin="30425147" destination="10375734#3" /><trip origin="30760404#0" destination="-216585352#0" /><trip origin="216740265#0" destination="133262436-AddedOnRampEdge" /><trip origin="216740265#0" destination="217633189#1" /><trip origin="25342116#1" destination="217633189#1" /><trip origin="44717502#0" destination="-25342116#0" /><trip origin="31730899#0" destination="-216716047#2" /><trip origin="31730660#3" destination="216585349" /><trip origin="216585360" destination="30758173#1" /><trip origin="216585360" destination="-216585352#0" /><trip origin="10375754#1" destination="30425371#2" /><trip origin="25342116#1" destination="-216585352#0" /><trip origin="-30758173#2" destination="-44502616#2" /><trip origin="29142589#3" destination="-27406116#1" /><trip origin="30760404#0" destination="-25585153#1" /><trip origin="-134706507#1" destination="217633189#1" /><trip origin="30738629#1" destination="30424985" /><trip origin="-134706507#1" destination="-216716047#2" /><trip origin="30760404#0" destination="-25342116#1" /><trip origin="38047218" destination="217633188#0" /><trip origin="-30758174#1" destination="-216716047#2" /><trip origin="24721127" destination="-25585153#1" /><trip origin="25342114#1" destination="30779824" /><trip origin="24721127" destination="30758174#0" /><trip origin="216585360" destination="25585153#2" /><trip origin="216740262#1" destination="30425371#2" /><trip origin="24494409#0" destination="-31730798#5" /><trip origin="24721127" destination="-216585352#0" /><trip origin="-4044270#2" destination="-145127858" /><trip origin="30760404#0" destination="30758173#1" /><trip origin="24721127" destination="-216585352#0" /><trip origin="30425147" destination="30779824" /><trip origin="30424966" destination="142169747#0" /><trip origin="230306384" destination="-38047217" /><trip origin="25342114#1" destination="230306384" /><trip origin="217633189#1" destination="-216585352#0" /><trip origin="31928172" destination="-216585352#0" /><trip origin="10375734#0" destination="30425371#2" /><trip origin="30760404#0" destination="-216585352#0" /><trip origin="30760404#0" destination="30758174#0" /><trip origin="30760404#0" destination="-216585352#0" /><trip origin="25342116#1" destination="30758174#0" /><trip origin="30760404#0" destination="36901727" /><trip origin="10375734#0" destination="30758174#0" /><trip origin="30760404#0" destination="-31730649#0" /><trip origin="31730660#3" destination="30779824" /><trip origin="24494409#0" destination="24494409#0" /><trip origin="30760404#0" destination="36901727" /><trip origin="216740265#0" destination="30779824" /><trip origin="10375754#1" destination="36901727" /><trip origin="30760404#0" destination="30758174#0" /><trip origin="30760404#0" destination="260749334" /><trip origin="31730660#3" destination="-25585153#1" /><trip origin="10089982" destination="216585352#0" /><trip origin="-134706507#1" destination="133262436-AddedOnRampEdge" /><trip origin="24494409#0" destination="24494409#0" /><trip origin="28840152#0" destination="10375734#3" /><trip origin="30425147" destination="10375734#3" /><trip origin="8101179#0" destination="-25342116#1" /><trip origin="8101180#0" destination="31730812#0" /><trip origin="173101348#0" destination="217633189#1" /><trip origin="-30758173#0" destination="133848731" /><trip origin="28840152#0" destination="30425371#2" /><trip origin="31730660#3" destination="25342114#1" /><trip origin="10089982" destination="-30758173#2" /><trip origin="10375754#1" destination="31730660#3" /><trip origin="-30758173#2" destination="-120785042" /><trip origin="173101348#4" destination="-216585352#0" /><trip origin="10375754#1" destination="173101348#0" /><trip origin="10375734#0" destination="-216585352#0" /><trip origin="-30426321#1" destination="217633189#1" /><trip origin="31730660#3" destination="133262436-AddedOnRampEdge" /><trip origin="230306383" destination="-80249226#1" /><trip origin="230306384" destination="-30758178#2" /><trip origin="30760404#0" destination="30758173#1" /><trip origin="125954568" destination="-216585352#0" /><trip origin="10375754#1" destination="-216585352#0" /><trip origin="-90430103#2" destination="133859049-AddedOnRampEdge" /><trip origin="24494409#0" destination="24494409#0" /><trip origin="125954568" destination="31730553" /><trip origin="28840152#0" destination="217633189#1" /><trip origin="8101180#0" destination="-173101348#5" /><trip origin="8101180#1" destination="-31730798#5" /><trip origin="30738629#1" destination="30424985" /><trip origin="31730899#0" destination="217633189#1" /><trip origin="-31730649#0" destination="30779824" /><trip origin="125954568" destination="-216585352#0" /><trip origin="30760404#0" destination="30758173#1" /><trip origin="10375734#0" destination="31730660#3" /><trip origin="30760404#0" destination="-216585352#0" /><trip origin="30760404#0" destination="-25342112" /><trip origin="30760404#0" destination="30425371#2" /><trip origin="-134706507#1" 