<?xml version="1.0" encoding="UTF-8"?>
<routes xmlns:xsi="http://www.w3.org/2001/XMLSchema-instance" xsi:noNamespaceSchemaLocation="http://sumo.dlr.de/xsd/routes_file.xsd">
    <trip id="393_70_0" depart="4263.00" from="38243849" to="-31730812#2" type="pkw" />
        <trip id="655_83_0" depart="4719.00" from="-25585153#1" to="30758173#1" type="pkw" />
        <trip id="4254_249_0" depart="14760.00" from="31730798#0" to="133848731" type="pkw" />
        <trip id="6688_284_0" depart="17174.00" from="-30758174#1" to="217633189#1" type="pkw" />
        <trip id="11251_311_0" depart="18220.00" from="28840152#0" to="173101348#0" type="pkw" />
        <trip id="14027_318_0" depart="18877.00" from="134706507#0" to="217633189#1" type="pkw" />
        <trip id="13769_317_0" depart="19006.00" from="-30758174#1" to="28840152#0" type="pkw" />
        <trip id="24134_339_0" depart="20246.00" from="30760404#0" to="30425371#2" type="pkw" />
        <trip id="29064_345_0" depart="20578.00" from="216740265#0" to="27195798#1" type="pkw" />
        <trip id="33591_351_0" depart="20977.00" from="134706507#0" to="25342114#1" type="pkw" />
        <trip id="46066_363_0" depart="21589.00" from="28840152#0" to="25585153#2" type="pkw" />
        <trip id="36969_357_0" depart="21728.00" from="-134706507#1" to="24494409#0" type="pkw" />
        <trip id="48502_366_0" depart="21809.00" from="-30758173#0" to="34436039" type="pkw" />
        <trip id="60316_376_0" depart="22391.00" from="-30758174#1" to="27195798#1" type="pkw" />
        <trip id="51871_370_0" depart="22404.00" from="10375754#1" to="-31730649#0" type="pkw" />
        <trip id="52005_370_0" depart="22579.00" from="10375754#1" to="-216585352#0" type="pkw" />
        <trip id="63912_377_0" depart="22601.00" from="-134706507#1" to="30425442" type="pkw" />
        <trip id="60793_376_0" depart="22708.00" from="31730660#3" to="217633189#1" type="pkw" />
        <trip id="78691_387_0" depart="22956.00" from="-134706507#1" to="24494409#0" type="pkw" />
        <trip id="65091_379_0" depart="23025.00" from="30425147" to="30758173#1" type="pkw" />
        <trip id="89220_391_0" depart="23089.00" from="27195798#2" to="30779824" type="pkw" />
        <trip id="82862_390_0" depart="23327.00" from="28840152#0" to="-25585153#2" type="pkw" />
        <trip id="97419_395_0" depart="23511.00" from="134706507#0" to="-31730812#2" type="pkw" />
        <trip id="95024_393_0" depart="23591.00" from="-8132936#4" to="134706507#0" type="pkw" />
        <trip id="110017_401_0" depart="23633.00" from="31730660#3" to="-25342112" type="pkw" />
        <trip id="81764_389_0" depart="23659.00" from="10375754#1" to="-25342116#1" type="pkw" />
        <trip id="89200_391_0" depart="23849.00" from="216740265#0" to="27195798#1" type="pkw" />
        <trip id="121889_406_0" depart="23968.00" from="125954568" to="217633189#1" type="pkw" />
        <trip id="139007_413_0" depart="24339.00" from="-134706507#1" to="133848731" type="pkw" />
        <trip id="113829_402_0" depart="24438.00" from="25342114#1" to="25585153#2" type="pkw" />
        <trip id="139477_413_0" depart="24697.00" from="30425147" to="-216716047#2" type="pkw" />
        <trip id="151128_418_0" depart="24811.00" from="25342114#1" to="-216585352#0" type="pkw" />
        <trip id="144637_416_0" depart="24881.00" from="-134706507#1" to="24494409#0" type="pkw" />
        <trip id="144976_416_0" depart="25141.00" from="-30758173#2" to="31730621" type="pkw" />
        <trip id="140274_414_0" depart="25186.00" from="-25585153#1" to="-216585352#0" type="pkw" />
        <trip id="143074_415_0" depart="25231.00" from="30760404#0" to="30758174#0" type="pkw" />
        <trip id="164743_422_0" depart="25453.00" from="-31730649#0" to="-216585352#0" type="pkw" />
        <trip id="169057_425_0" depart="25538.00" from="216740265#0" to="27195798#1" type="pkw" />
        <trip id="188693_434_0" depart="25746.00" from="-91757249#2" to="90640766" type="pkw" />
        <trip id="171509_426_0" depart="25918.00" from="125954568" to="-216585352#0" type="pkw" />
        <trip id="194737_436_0" depart="26004.00" from="204125847" to="-31730798#5" type="pkw" />
        <trip id="202203_438_0" depart="26230.00" from="-134706507#1" to="-24494409#1" type="pkw" />
        <trip id="203596_439_0" depart="26279.00" from="29142589#3" to="-173101348#3" type="pkw" />
        <trip id="185880_432_0" depart="26335.00" from="-30758174#1" to="30760404#0" type="pkw" />
        <trip id="228579_450_0" depart="26554.00" from="28840152#0" to="217633189#1" type="pkw" />
        <trip id="237065_451_0" depart="26768.00" from="27611964#0" to="27195798#1" type="pkw" />
        <trip id="218015_446_0" depart="26945.00" from="30424966" to="30758173#1" type="pkw" />
        <trip id="244057_453_0" depart="26970.00" from="-30758174#1" to="-216585352#0" type="pkw" />
        <trip id="239532_451_0" depart="27186.00" from="-30758174#1" to="-25585153#2" type="pkw" />
        <trip id="249258_456_0" depart="27610.00" from="125954568" to="-216585352#0" type="pkw" />
        <trip id="256731_460_0" depart="27617.00" from="216740265#0" to="30425371#2" type="pkw" />
        <trip id="275817_468_0" depart="27880.00" from="230306384" to="-120785042" type="pkw" />
        <trip id="278443_470_0" depart="27907.00" from="28840152#0" to="-216716047#2" type="pkw" />
        <trip id="277769_469_0" depart="27994.00" from="28840152#0" to="173101348#0" type="pkw" />    <trip id="267977_465_0" depart="28001.00" from="31730660#3" to="30758173#1" type="pkw" />
        <trip id="274568_467_0" depart="28280.00" from="25342114#1" to="-216585352#0" type="pkw" />
        <trip id="288034_476_0" depart="28405.00" from="25342114#1" to="260749334" type="pkw" />
        <trip id="286811_475_0" depart="28497.00" from="30425147" to="25585153#2" type="pkw" />
        <trip id="286030_475_0" depart="28511.00" from="28840152#0" to="-216585352#0" type="pkw" />
        <trip id="298691_482_0" depart="28650.00" from="134706507#0" to="325731358" type="pkw" />
        <trip id="300265_483_0" depart="28712.00" from="125954568" to="216585349" type="pkw" />
        <trip id="284979_474_0" depart="28754.00" from="18228974#1" to="-216716047#2" type="pkw" />
        <trip id="286261_475_0" depart="28834.00" from="173101348#4" to="25342114#1" type="pkw" />
        <trip id="313774_495_0" depart="29318.00" from="125954568" to="-216716047#2" type="pkw" />
        <trip id="311818_494_0" depart="29348.00" from="-38047217" to="217633188#0" type="pkw" />
        <trip id="310280_492_0" depart="29586.00" from="25342116#1" to="36901727" type="pkw" />
        <trip id="320484_500_0" depart="29680.00" from="-30758174#1" to="30758173#1" type="pkw" />
        <trip id="309276_491_0" depart="29853.00" from="80249226#0" to="216585352#0" type="pkw" />
        <trip id="322645_502_0" depart="29928.00" from="-30758174#1" to="-216716047#2" type="pkw" />
        <trip id="323416_503_0" depart="29944.00" from="28840152#0" to="-216585352#0" type="pkw" />
        <trip id="313218_495_0" depart="30041.00" from="18228974#1" to="25342114#1" type="pkw" />
        <trip id="320263_500_0" depart="30095.00" from="216585360" to="25342114#1" type="pkw" />
        <trip id="323504_503_0" depart="30286.00" from="216740265#0" to="-216716047#2" type="pkw" />
        <trip id="326161_506_0" depart="30349.00" from="25342116#1" to="-216585352#0" type="pkw" />
        <trip id="335302_513_0" depart="30362.00" from="31730899#0" to="217633189#1" type="pkw" />
        <trip id="335187_513_0" depart="30454.00" from="28840152#0" to="-25585153#2" type="pkw" />
        <trip id="322597_502_0" depart="30463.00" from="44717502#0" to="-120785042" type="pkw" />
        <trip id="336713_515_0" depart="30478.00" from="37412366#0" to="217633189#1" type="pkw" />
        <trip id="333678_512_0" depart="30556.00" from="134706507#0" to="-255060938#2" type="pkw" />
        <trip id="330068_509_0" depart="30570.00" from="28840152#0" to="217633189#1" type="pkw" />
        <trip id="336299_514_0" depart="30871.00" from="28840152#0" to="-216585352#0" type="pkw" />
        <trip id="339005_517_0" depart="30876.00" from="125954568" to="-216585352#0" type="pkw" />
        <trip id="343591_522_0" depart="31075.00" from="134706507#0" to="-31730798#5" type="pkw" />
        <trip id="338999_517_0" depart="31297.00" from="4044270#0" to="24494409#0" type="pkw" />
        <trip id="344204_522_0" depart="31300.00" from="8101167#0" to="38047218" type="pkw" />
        <trip id="343927_522_0" depart="31458.00" from="28840152#0" to="25342114#1" type="pkw" />
        <trip id="350207_527_0" depart="31497.00" from="30758173#1" to="31730798#2" type="pkw" />
        <trip id="352445_529_0" depart="31595.00" from="30738629#1" to="30425371#2" type="pkw" />
        <trip id="350360_527_0" depart="31611.00" from="-25585153#1" to="-216585352#0" type="pkw" />
        <trip id="355672_532_0" depart="31618.00" from="125954568" to="-25585153#1" type="pkw" />
        <trip id="345898_524_0" depart="31687.00" from="216740265#0" to="30758173#1" type="pkw" />
        <trip id="351177_528_0" depart="31826.00" from="80249226#0" to="133848731" type="pkw" />
        <trip id="355403_531_0" depart="31837.00" from="31928172" to="-30426321#1" type="pkw" />
        <trip id="350399_527_0" depart="31917.00" from="-134706507#1" to="8177290#1" type="pkw" />
        <trip id="363751_540_0" depart="32012.00" from="28840152#0" to="-216585352#0" type="pkw" />
        <trip id="368071_541_0" depart="32192.00" from="134706507#0" to="-216716047#2" type="pkw" />
        <trip id="357025_533_0" depart="32207.00" from="10375754#1" to="36901727" type="pkw" />
        <trip id="370641_542_0" depart="32263.00" from="-216600325#2" to="241588588" type="pkw" />
        <trip id="373420_544_0" depart="32366.00" from="-25585153#1" to="260749334" type="pkw" />
        <trip id="359082_536_0" depart="32368.00" from="-142169748" to="-216585352#0" type="pkw" />
        <trip id="363725_540_0" depart="32380.00" from="173101348#0" to="-216585352#0" type="pkw" />
        <trip id="370450_542_0" depart="32413.00" from="216740265#0" to="217633189#1" type="pkw" />
        <trip id="362048_538_0" depart="32514.00" from="-25585153#1" to="-173101345#0" type="pkw" />    <trip id="362247_538_0" depart="32556.00" from="28840152#0" to="-216585352#0" type="pkw" />
        <trip id="377893_550_0" depart="32684.00" from="-30426321#1" to="216585349" type="pkw" />
        <trip id="364065_540_0" depart="32690.00" from="29142589#3" to="-30758178#2" type="pkw" />
        <trip id="381198_553_0" depart="33327.00" from="-134706507#1" to="-216585352#0" type="pkw" />
        <trip id="386719_560_0" depart="33375.00" from="134706507#0" to="-216716047#2" type="pkw" />
        <trip id="390990_564_0" depart="33390.00" from="25342114#1" to="216585349" type="pkw" />
        <trip id="382217_555_0" depart="33401.00" from="30760404#0" to="30758173#1" type="pkw" />
        <trip id="384822_557_0" depart="33643.00" from="134706507#0" to="-216585354" type="pkw" />
        <trip id="382252_555_0" depart="33707.00" from="30760404#0" to="-216716047#2" type="pkw" />
        <trip id="390944_564_0" depart="33756.00" from="24721127" to="36901727" type="pkw" />
        <trip id="390756_564_0" depart="33934.00" from="10375734#0" to="-216585352#0" type="pkw" />
        <trip id="388547_562_0" depart="34044.00" from="28840152#0" to="-216716047#2" type="pkw" />
        <trip id="399503_572_0" depart="34091.00" from="25342116#1" to="24494409#0" type="pkw" />
        <trip id="397912_571_0" depart="34324.00" from="31730660#3" to="30779824" type="pkw" />
        <trip id="403385_576_0" depart="34444.00" from="-142169748" to="-216716047#2" type="pkw" />
        <trip id="405016_578_0" depart="34487.00" from="10375734#0" to="-216585352#0" type="pkw" />
        <trip id="398569_572_0" depart="34559.00" from="216740265#0" to="-31730649#0" type="pkw" />
        <trip id="408045_582_0" depart="34562.00" from="25342114#1" to="30779824" type="pkw" />
        <trip id="399241_572_0" depart="34613.00" from="30760404#0" to="-216716047#2" type="pkw" />
        <trip id="410028_584_0" depart="34710.00" from="31730660#3" to="-216585352#0" type="pkw" />
        <trip id="415388_589_0" depart="35235.00" from="25342116#1" to="-216716047#2" type="pkw" />
        <trip id="409416_583_0" depart="35274.00" from="80249226#0" to="-10375797#1" type="pkw" />
        <trip id="410619_585_0" depart="35298.00" from="8101179#0" to="31730591#0" type="pkw" />
        <trip id="423703_598_0" depart="35559.00" from="173101348#4" to="217633189#1" type="pkw" />
        <trip id="417632_591_0" depart="35599.00" from="216585360" to="217633189#1" type="pkw" />
        <trip id="421295_595_0" depart="35761.00" from="24721127" to="173101348#0" type="pkw" />
        <trip id="426060_600_0" depart="35939.00" from="216740262#1" to="30758174#0" type="pkw" />
        <trip id="426614_600_0" depart="35978.00" from="10375734#0" to="30425371#2" type="pkw" />
        <trip id="431398_604_0" depart="36158.00" from="31730899#0" to="-216585352#0" type="pkw" />
        <trip id="433848_607_0" depart="36215.00" from="125954568" to="25342114#1" type="pkw" />
        <trip id="424592_599_0" depart="36287.00" from="30760404#0" to="25342114#1" type="pkw" />
        <trip id="430525_603_0" depart="36348.00" from="134706507#0" to="-216716047#2" type="pkw" />
        <trip id="428147_601_0" depart="36402.00" from="27611964#0" to="216585349" type="pkw" />
        <trip id="434539_608_0" depart="36565.00" from="125954568" to="-216716047#2" type="pkw" />
        <trip id="432930_606_0" depart="36763.00" from="31730660#3" to="173101348#0" type="pkw" />
        <trip id="438907_613_0" depart="36825.00" from="216585360" to="217633189#1" type="pkw" />
        <trip id="442128_616_0" depart="37221.00" from="-30758173#2" to="30779824" type="pkw" />
        <trip id="453220_625_0" depart="37284.00" from="216585360" to="-216585352#0" type="pkw" />
        <trip id="452297_624_0" depart="37552.00" from="30738629#1" to="-216585352#0" type="pkw" />
        <trip id="459069_630_0" depart="37553.00" from="51037382#0" to="-25866966#8" type="pkw" />
        <trip id="456440_628_0" depart="37672.00" from="-30426321#1" to="217633189#1" type="pkw" />
        <trip id="461588_631_0" depart="37766.00" from="134706507#0" to="24721127" type="pkw" />
        <trip id="471161_640_0" depart="37976.00" from="216585360" to="-216716047#2" type="pkw" />
        <trip id="469028_637_0" depart="38025.00" from="10375734#0" to="-25585153#2" type="pkw" />
        <trip id="457710_629_0" depart="38139.00" from="28840152#0" to="-216716047#2" type="pkw" />
        <trip id="471908_640_0" depart="38232.00" from="216740265#0" to="217633189#1" type="pkw" />
        <trip id="479084_649_0" depart="38588.00" from="30760404#0" to="173101348#0" type="pkw" />
        <trip id="482045_652_0" depart="38680.00" from="28840152#0" to="-216585352#0" type="pkw" />
        <trip id="473116_642_0" depart="38885.00" from="28840152#0" to="30758173#1" type="pkw" />
        <trip id="482828_652_0" depart="38932.00" from="30425147" to="217633189#1" type="pkw" />
        <trip id="472843_642_0" depart="38970.00" from="30760404#0" to="25585153#2" type="pkw" />
        <trip id="486047_656_0" depart="39074.00" from="125954568" to="31730553" type="pkw" />
        <trip id="487551_657_0" depart="39181.00" from="31730899#0" to="217633189#1" type="pkw" />
        <trip id="485267_655_0" depart="39310.00" from="-25585153#1" to="-216716047#2" type="pkw" />
        <trip id="482899_652_0" depart="39502.00" from="24721127" to="216585349" type="pkw" />
        <trip id="489167_659_0" depart="39527.00" from="216740265#0" to="-216716047#2" type="pkw" />
        <trip id="496610_665_0" depart="39568.00" from="8101167#0" to="24494409#0" type="pkw" />
        <trip id="495163_664_0" depart="39638.00" from="8101180#1" to="-145127858" type="pkw" />
        <trip id="487356_657_0" depart="39777.00" from="-25585153#1" to="217633189#1" type="pkw" />
        <trip id="498730_667_0" depart="39921.00" from="125682429#1" to="24721127" type="pkw" />
        <trip id="491764_661_0" depart="40071.00" from="10375734#0" to="216585350" type="pkw" />
        <trip id="502865_671_0" depart="40102.00" from="-51037374#1" to="33970289" type="pkw" />
        <trip id="494817_663_0" depart="40135.00" from="-27195800" to="27195798#1" type="pkw" />
        <trip id="501724_670_0" depart="40429.00" from="30760404#0" to="-216585352#0" type="pkw" />
        <trip id="510404_678_0" depart="40440.00" from="216585360" to="25585153#2" type="pkw" />
        <trip id="512933_680_0" depart="40730.00" from="8101179#0" to="10089982" type="pkw" />
        <trip id="519182_686_0" depart="40819.00" from="-120785042" to="-216716047#2" type="pkw" />
        <trip id="519056_686_0" depart="40874.00" from="125954568" to="-216716047#2" type="pkw" />
        <trip id="515698_683_0" depart="40905.00" from="216740265#0" to="217633189#1" type="pkw" />
        <trip id="515630_683_0" depart="40937.00" from="10375754#1" to="25342114#1" type="pkw" />
        <trip id="512975_680_0" depart="40955.00" from="30760404#0" to="36901727" type="pkw" />
        <trip id="514812_682_0" depart="40961.00" from="10375734#0" to="24494409#0" type="pkw" />
        <trip id="522856_690_0" depart="41001.00" from="24721127" to="-25585153#1" type="pkw" />
        <trip id="513207_680_0" depart="41063.00" from="10375734#0" to="30425371#2" type="pkw" />
        <trip id="515885_683_0" depart="41185.00" from="25342114#1" to="-216716047#2" type="pkw" />
        <trip id="512512_680_0" depart="41225.00" from="51037382#0" to="-216585355" type="pkw" />
        <trip id="519576_686_0" depart="41252.00" from="10375734#0" to="-25585153#2" type="pkw" />
        <trip id="528717_695_0" depart="41271.00" from="25342114#1" to="217633189#1" type="pkw" />
        <trip id="526828_693_0" depart="41513.00" from="30760404#0" to="30425371#2" type="pkw" />
        <trip id="530582_696_0" depart="41515.00" from="24721127" to="36901727" type="pkw" />
        <trip id="530977_696_0" depart="41772.00" from="10375734#0" to="-216585352#0" type="pkw" />
        <trip id="532616_698_0" depart="41873.00" from="216585360" to="260749334" type="pkw" />
        <trip id="528421_695_0" depart="41955.00" from="-38047218" to="216585352#0" type="pkw" />
        <trip id="532225_697_0" depart="41994.00" from="25342114#1" to="216585350" type="pkw" />
        <trip id="544986_707_0" depart="42066.00" from="-30758174#1" to="217633189#1" type="pkw" />
        <trip id="544518_706_0" depart="42101.00" from="8101167#0" to="-31730805#3" type="pkw" />
        <trip id="549005_709_0" depart="42167.00" from="-24494409#1" to="133859049-AddedOnRampEdge" type="pkw" />
        <trip id="548412_709_0" depart="42169.00" from="30738629#1" to="24494409#0" type="pkw" />
        <trip id="544084_706_0" depart="42210.00" from="-24494409#1" to="-34436038" type="pkw" />
        <trip id="552053_711_0" depart="42287.00" from="25342116#1" to="30758174#0" type="pkw" />
        <trip id="542279_705_0" depart="42330.00" from="10375734#0" to="25342114#1" type="pkw" />
        <trip id="554972_713_0" depart="42514.00" from="4044270#0" to="-145127858" type="pkw" />
        <trip id="539107_703_0" depart="42549.00" from="29142589#2" to="-216716047#2" type="pkw" />
        <trip id="559133_716_0" depart="42666.00" from="10375734#0" to="30424985" type="pkw" />
        <trip id="550548_710_0" depart="42672.00" from="29142589#2" to="8177290#1" type="pkw" />
        <trip id="551191_710_0" depart="42909.00" from="10375734#0" to="-216585352#0" type="pkw" />
        <trip id="561622_717_0" depart="42983.00" from="10375734#0" to="-31730649#0" type="pkw" />
        <trip id="552380_711_0" depart="43031.00" from="27611964#0" to="260749334" type="pkw" />
        <trip id="557616_715_0" depart="43106.00" from="10375734#0" to="24494409#0" type="pkw" />
        <trip id="575891_725_0" depart="43139.00" from="31730899#0" to="-216716047#2" type="pkw" />
        <trip id="566165_720_0" depart="43153.00" from="28840152#0" to="-216585352#0" type="pkw" />
        <trip id="565427_720_0" depart="43238.00" from="230306384" to="-173101343#1" type="pkw" />
        <trip id="563666_719_0" depart="43313.00" from="25342114#1" to="30425371#2" type="pkw" />
        <trip id="561422_717_0" depart="43364.00" from="30426321#0" to="31730812#0" type="pkw" />
        <trip id="583476_730_0" depart="43463.00" from="4862758" to="31730798#2" type="pkw" />
        <trip id="570192_722_0" depart="43483.00" from="24721127" to="260749334" type="pkw" />
        <trip id="584803_731_0" depart="43514.00" from="24494409#0" to="230306384" type="pkw" />
        <trip id="586084_732_0" depart="43530.00" from="27195798#2" to="24494409#0" type="pkw" />
        <trip id="576427_725_0" depart="43553.00" from="24721127" to="260749334" type="pkw" />
        <trip id="573013_723_0" depart="43639.00" from="-4044270#2" to="142169746#2" type="pkw" />
        <trip id="571371_722_0" depart="43653.00" from="-4044270#2" to="-145127858" type="pkw" />
        <trip id="584806_731_0" depart="43690.00" from="30760404#0" to="30758174#0" type="pkw" />
        <trip id="582562_729_0" depart="43859.00" from="-134706507#1" to="30425147" type="pkw" />
        <trip id="582506_729_0" depart="43934.00" from="28840152#0" to="30758173#1" type="pkw" />
        <trip id="585820_732_0" depart="44046.00" from="28840152#0" to="217633189#1" type="pkw" />
        <trip id="598156_742_0" depart="44134.00" from="-25585153#1" to="-216716047#2" type="pkw" />
        <trip id="597286_742_0" depart="44180.00" from="28840152#0" to="25585153#2" type="pkw" />
        <trip id="598943_743_0" depart="44213.00" from="25342116#1" to="-216585352#0" type="pkw" />
        <trip id="599388_743_0" depart="44337.00" from="30760404#0" to="36901727" type="pkw" />
        <trip id="590120_736_0" depart="44506.00" from="24721127" to="24494409#0" type="pkw" />
        <trip id="590922_737_0" depart="44535.00" from="24721127" to="-216585352#0" type="pkw" />
        <trip id="590883_737_0" depart="44661.00" from="-27195800" to="24494409#0" type="pkw" />
        <trip id="593226_739_0" depart="44743.00" from="30738629#1" to="173101348#0" type="pkw" />
        <trip id="609162_750_0" depart="44773.00" from="-30758174#1" to="30758173#1" type="pkw" />
        <trip id="601520_745_0" depart="44857.00" from="90640766" to="216585355" type="pkw" />
        <trip id="606837_748_0" depart="45131.00" from="31730660#3" to="-216585352#0" type="pkw" />
        <trip id="624864_760_0" depart="45259.00" from="-31730798#1" to="-134706507#1" type="pkw" />
        <trip id="615221_753_0" depart="45501.00" from="216585360" to="28840152#0" type="pkw" />
        <trip id="624001_759_0" depart="45528.00" from="30760404#0" to="-25585153#2" type="pkw" />
        <trip id="628010_762_0" depart="45627.00" from="8101179#0" to="204125847" type="pkw" />
        <trip id="619757_756_0" depart="45656.00" from="24721127" to="260749334" type="pkw" />
        <trip id="638108_769_0" depart="45759.00" from="10375734#0" to="217633189#1" type="pkw" />
        <trip id="636282_767_0" depart="45869.00" from="10375734#0" to="30758173#1" type="pkw" />
        <trip id="630721_764_0" depart="45874.00" from="173101348#4" to="-216716047#2" type="pkw" />
        <trip id="627546_762_0" depart="46126.00" from="27195798#2" to="133262436-AddedOnRampEdge" type="pkw" />
        <trip id="652928_779_0" depart="46306.00" from="-28840152#2" to="-216716047#2" type="pkw" />
        <trip id="638584_769_0" depart="46375.00" from="125954568" to="-216585352#0" type="pkw" />
        <trip id="635614_767_0" depart="46446.00" from="10375734#0" to="-25585153#1" type="pkw" />
        <trip id="637202_768_0" depart="46465.00" from="-134706507#1" to="217633188#0" type="pkw" />
        <trip id="638189_769_0" depart="46485.00" from="-30758173#2" to="31730553" type="pkw" />
        <trip id="647066_775_0" depart="46566.00" from="216740262#1" to="-216716047#2" type="pkw" />
        <trip id="655167_780_0" depart="46595.00" from="-120785042" to="134706507#0" type="pkw" />
        <trip id="647411_775_0" depart="46772.00" from="10375754#1" to="-216585352#0" type="pkw" />
        <trip id="648150_776_0" depart="46931.00" from="24494409#0" to="170147426#1" type="pkw" />
        <trip id="649660_777_0" depart="46976.00" from="27611964#0" to="27195798#1" type="pkw" />
        <trip id="666516_786_0" depart="47237.00" from="216740265#0" to="217633189#1" type="pkw" />
        <trip id="664359_785_0" depart="47315.00" from="30760404#0" to="31730553" type="pkw" />
        <trip id="679372_795_0" depart="47417.00" from="-24494409#1" to="-30425371#0" type="pkw" />
        <trip id="683651_798_0" depart="47432.00" from="10375734#0" to="30425371#2" type="pkw" />
        <trip id="670808_789_0" depart="47491.00" from="25342114#1" to="30758174#0" type="pkw" />
        <trip id="684121_798_0" depart="47495.00" from="216585360" to="-216585352#0" type="pkw" />
        <trip id="665334_786_0" depart="47541.00" from="24494409#0" to="-173101343#1" type="pkw" />
        <trip id="684038_798_0" depart="47607.00" from="-44717502#4" to="-27195800" type="pkw" />
        <trip id="695514_807_0" depart="48035.00" from="173101348#4" to="30425371#2" type="pkw" />
        <trip id="697953_809_0" depart="48120.00" from="24494409#0" to="173101348#0" type="pkw" />
        <trip id="684265_798_0" depart="48240.00" from="134706507#0" to="-216716047#2" type="pkw" />
        <trip id="708533_813_0" depart="48482.00" from="-27195800" to="25342116#1" type="pkw" />
        <trip id="688960_802_0" depart="48496.00" from="-27195800" to="-145127858" type="pkw" />
        <trip id="698611_809_0" depart="48531.00" from="25342114#1" to="27195798#1" type="pkw" />
        <trip id="699639_810_0" depart="48626.00" from="28840152#0" to="217633189#1" type="pkw" />
        <trip id="696273_808_0" depart="48766.00" from="-30758174#1" to="-216716047#2" type="pkw" />
        <trip id="715959_820_0" depart="48955.00" from="-142169748" to="-216585352#0" type="pkw" />
        <trip id="717507_821_0" depart="49045.00" from="-28840152#2" to="133859049-AddedOnRampEdge" type="pkw" />
        <trip id="714316_818_0" depart="49091.00" from="125954568" to="-31730649#0" type="pkw" />
        <trip id="711039_815_0" depart="49236.00" from="-134706507#1" to="25342114#1" type="pkw" />
        <trip id="717475_821_0" depart="49366.00" from="217633189#1" to="30758174#0" type="pkw" />
        <trip id="726123_829_0" depart="49621.00" from="10375734#0" to="30425371#2" type="pkw" />
        <trip id="726484_830_0" depart="49761.00" from="25342114#1" to="217633189#1" type="pkw" />
        <trip id="722682_826_0" depart="49953.00" from="125954568" to="-216716047#2" type="pkw" />
        <trip id="730847_834_0" depart="50128.00" from="-25585153#1" to="-216585352#0" type="pkw" />
        <trip id="735309_838_0" depart="50144.00" from="25342116#1" to="260749334" type="pkw" />
        <trip id="740462_841_0" depart="50239.00" from="30760404#0" to="-31730649#0" type="pkw" />
        <trip id="745242_844_0" depart="50287.00" from="24721127" to="30758174#0" type="pkw" />
        <trip id="745368_844_0" depart="50723.00" from="24494409#0" to="38047218" type="pkw" />
        <trip id="738837_840_0" depart="50835.00" from="-30758174#1" to="217633189#1" type="pkw" />
        <trip id="755016_852_0" depart="50837.00" from="230306383" to="-31730798#5" type="pkw" />
        <trip id="741662_842_0" depart="50870.00" from="-120785042" to="28840152#0" type="pkw" />
        <trip id="749087_847_0" depart="51089.00" from="10375754#1" to="-216585352#0" type="pkw" />
        <trip id="771076_865_0" depart="51719.00" from="28840152#0" to="-216716047#2" type="pkw" />
        <trip id="764154_859_0" depart="51746.00" from="-142169748" to="30758174#0" type="pkw" />
        <trip id="765250_860_0" depart="51768.00" from="125954568" to="-216716047#2" type="pkw" />
        <trip id="764284_859_0" depart="51796.00" from="-18228974#3" to="-216716047#2" type="pkw" />
        <trip id="770919_865_0" depart="51960.00" from="216585360" to="30758174#0" type="pkw" />
        <trip id="782398_873_0" depart="52057.00" from="29142589#2" to="-173101348#5" type="pkw" />
        <trip id="769070_863_0" depart="52068.00" from="30738629#1" to="30779824" type="pkw" />
        <trip id="785022_875_0" depart="52101.00" from="31730660#3" to="-216716047#2" type="pkw" />
        <trip id="784534_875_0" depart="52161.00" from="10375754#1" to="173101348#0" type="pkw" />
        <trip id="784538_875_0" depart="52240.00" from="30760404#0" to="-216585352#0" type="pkw" />
        <trip id="783280_874_0" depart="52260.00" from="10375734#0" to="-216585352#0" type="pkw" />
        <trip id="788239_878_0" depart="52270.00" from="-30758174#1" to="217633189#1" type="pkw" />
        <trip id="770481_864_0" depart="52282.00" from="31730553" to="-216585352#0" type="pkw" />
        <trip id="771127_865_0" depart="52312.00" from="30760404#0" to="30779824" type="pkw" />
        <trip id="781871_873_0" depart="52797.00" from="-30758173#2" to="217633189#1" type="pkw" />
        <trip id="788322_878_0" depart="52804.00" from="27611964#0" to="30425371#2" type="pkw" />
        <trip id="801924_887_0" depart="52843.00" from="10375734#0" to="30758173#1" type="pkw" />
        <trip id="807342_890_0" depart="53055.00" from="24721127" to="-216585352#0" type="pkw" />
        <trip id="795262_883_0" depart="53090.00" from="125954568" to="10375734#3" type="pkw" />
        <trip id="790644_880_0" depart="53144.00" from="30760404#0" to="30758173#1" type="pkw" />
        <trip id="809847_892_0" depart="53252.00" from="216740265#0" to="-216716047#2" type="pkw" />